@<TRIPOS>MOLECULE
frame_169_ionomer_nvt.pdb
 498 497 0 0 0
SMALL
GASTEIGER

@<TRIPOS>ATOM
      1    F        9.1460   29.8100   26.6160 F       1  MOL1       -0.1920
      2    F       29.7750   18.0080   24.0180 F       1  MOL1       -0.1920
      3    F       15.7270   24.1260   32.0150 F       1  MOL1       -0.1648
      4    F       38.0620   27.5740   27.2730 F       1  MOL1       -0.1920
      5    F       40.5950   17.6240   33.1680 F       1  MOL1       -0.1920
      6    F       22.7880   26.9790   32.8380 F       1  MOL1       -0.1920
      7    F       42.8160   21.0830   23.2640 F       1  MOL1       -0.1920
      8    F       21.8280   33.0620   25.5040 F       1  MOL1       -0.1920
      9    F       29.2720   20.1290   23.7890 F       1  MOL1       -0.1920
     10    F       39.0580   29.1790   28.4410 F       1  MOL1       -0.1920
     11    F       22.9510   34.9000   24.9660 F       1  MOL1       -0.1920
     12    F       22.1690   28.0650   34.6540 F       1  MOL1       -0.1920
     13    F        8.2030   30.0760   28.5180 F       1  MOL1       -0.1920
     14    F       39.1070   18.2560   31.7130 F       1  MOL1       -0.1920
     15    F       41.9040   21.7950   21.3330 F       1  MOL1       -0.1920
     16    F       15.9650   23.1530   34.0910 F       1  MOL1       -0.1648
     17    F       14.2640   22.6460   32.6640 F       1  MOL1       -0.1648
     18    F       22.5690   33.6040   28.3580 F       1  MOL1       -0.1920
     19    F       31.8600   20.8910   23.0520 F       1  MOL1       -0.1920
     20    F       23.4110   29.2590   31.4100 F       1  MOL1       -0.1920
     21    F       15.9700   21.5680   30.8460 F       1  MOL1       -0.1889
     22    F        9.4860   32.8130   28.7430 F       1  MOL1       -0.1920
     23    F       38.3580   18.7860   34.0890 F       1  MOL1       -0.1920
     24    F       38.1030   26.0340   29.8280 F       1  MOL1       -0.1920
     25    F       40.3010   21.8850   24.5450 F       1  MOL1       -0.1920
     26    F       23.2540   30.4470   33.1940 F       1  MOL1       -0.1920
     27    F       38.9870   27.8070   30.7770 F       1  MOL1       -0.1920
     28    F        7.8510   32.3630   27.4270 F       1  MOL1       -0.1920
     29    F       23.8660   35.1840   27.4980 F       1  MOL1       -0.1920
     30    F       39.4260   22.3880   22.5780 F       1  MOL1       -0.1920
     31    F       38.4970   16.5710   34.5690 F       1  MOL1       -0.1920
     32    F       16.2870   20.5710   32.7430 F       1  MOL1       -0.1889
     33    F       30.9690   19.3070   21.8920 F       1  MOL1       -0.1920
     34    F       23.8730   31.6250   26.5630 F       1  MOL1       -0.1920
     35    F       33.6320   19.1620   22.4410 F       1  MOL1       -0.1920
     36    F       18.1330   23.1850   31.2860 F       1  MOL1       -0.1919
     37    F       40.1020   25.8400   28.0500 F       1  MOL1       -0.1920
     38    F       42.4840   23.7300   23.8920 F       1  MOL1       -0.1920
     39    F       20.8280   29.8460   31.0660 F       1  MOL1       -0.1920
     40    F       10.5620   31.8740   25.6020 F       1  MOL1       -0.1920
     41    F       36.3720   18.0010   32.0870 F       1  MOL1       -0.1920
     42    F       41.1680   27.4480   28.7020 F       1  MOL1       -0.1920
     43    F       41.2660   24.2550   22.0760 F       1  MOL1       -0.1920
     44    F       36.3490   15.9710   32.9060 F       1  MOL1       -0.1920
     45    F       33.3080   19.0170   24.5290 F       1  MOL1       -0.1920
     46    F       25.0080   33.2950   25.7820 F       1  MOL1       -0.1920
     47    F        8.8750   33.3190   25.4200 F       1  MOL1       -0.1920
     48    F       20.5600   28.2570   32.3190 F       1  MOL1       -0.1920
     49    F       18.5450   22.5730   33.2380 F       1  MOL1       -0.1919
     50    F       11.8430   33.3430   27.5050 F       1  MOL1       -0.1920
     51    F       35.5640   19.3140   34.3840 F       1  MOL1       -0.1920
     52    F       18.5050   20.5980   30.2140 F       1  MOL1       -0.1920
     53    F       24.6700   32.1140   29.0460 F       1  MOL1       -0.1920
     54    F       40.4190   24.4970   25.6530 F       1  MOL1       -0.1920
     55    F       32.0550   16.7070   22.0390 F       1  MOL1       -0.1920
     56    F       20.6080   31.7680   32.9050 F       1  MOL1       -0.1920
     57    F       39.9550   25.0030   31.2020 F       1  MOL1       -0.1920
     58    F       10.3220   34.9440   27.2930 F       1  MOL1       -0.1920
     59    F       20.7390   30.2770   34.6060 F       1  MOL1       -0.1920
     60    F       18.8620   19.7300   32.1340 F       1  MOL1       -0.1920
     61    F       41.7350   26.2200   31.0250 F       1  MOL1       -0.1920
     62    F       31.8480   16.5950   24.2670 F       1  MOL1       -0.1920
     63    F       39.1980   24.7310   23.6750 F       1  MOL1       -0.1920
     64    F       25.6940   33.9740   28.6950 F       1  MOL1       -0.1920
     65    F       36.0800   17.7420   35.6980 F       1  MOL1       -0.1920
     66    F       18.0550   31.2240   34.0270 F       1  MOL1       -0.1920
     67    F       21.2350   19.9620   30.9250 F       1  MOL1       -0.1920
     68    F       27.5100   32.7870   26.9640 F       1  MOL1       -0.1920
     69    F       33.4160   17.7820   35.3690 F       1  MOL1       -0.1920
     70    F       42.5930   23.8640   30.6120 F       1  MOL1       -0.1920
     71    F       40.0420   27.0410   25.0470 F       1  MOL1       -0.1920
     72    F       33.8600   15.0160   23.5580 F       1  MOL1       -0.1920
     73    F       12.4280   35.8000   26.1130 F       1  MOL1       -0.1920
     74    F       10.9460   35.2880   24.7260 F       1  MOL1       -0.1920
     75    F       42.5100   24.6170   28.7380 F       1  MOL1       -0.1920
     76    F       34.1140   16.0890   34.3780 F       1  MOL1       -0.1920
     77    F       26.6220   30.7360   27.5200 F       1  MOL1       -0.1920
     78    F       40.8000   26.8520   23.0400 F       1  MOL1       -0.1920
     79    F       34.6860   16.6030   24.5640 F       1  MOL1       -0.1920
     80    F       20.9270   21.1710   32.7900 F       1  MOL1       -0.1920
     81    F       18.3990   29.0130   33.7040 F       1  MOL1       -0.1920
     82    F       43.3100   26.0960   24.0850 F       1  MOL1       -0.1920
     83    F       35.7010   17.7850   22.4120 F       1  MOL1       -0.1920
     84    F       32.0680   17.1210   33.1230 F       1  MOL1       -0.1920
     85    F       39.6780   23.3680   28.7470 F       1  MOL1       -0.1920
     86    F       27.1350   31.3530   30.2980 F       1  MOL1       -0.1920
     87    F       13.5650   34.8850   23.9090 F       1  MOL1       -0.1920
     88    F       20.7230   23.3430   31.2070 F       1  MOL1       -0.1920
     89    F       18.2260   29.5040   30.8900 F       1  MOL1       -0.1920
     90    F       42.6230   26.0800   26.0670 F       1  MOL1       -0.1920
     91    F       34.5140   16.5650   21.0080 F       1  MOL1       -0.1920
     92    F       40.3950   22.3430   30.6000 F       1  MOL1       -0.1920
     93    F       33.8100   17.2850   31.8460 F       1  MOL1       -0.1920
     94    F       27.8770   33.3960   29.6230 F       1  MOL1       -0.1920
     95    F       12.4440   33.0800   23.7910 F       1  MOL1       -0.1920
     96    F       18.5510   31.5940   31.1430 F       1  MOL1       -0.1920
     97    F       20.8640   22.1240   29.3510 F       1  MOL1       -0.1920
     98    F       41.6230   28.8880   25.6320 F       1  MOL1       -0.1920
     99    F       35.8690   14.2960   22.0480 F       1  MOL1       -0.1920
    100    F       33.9700   19.8930   32.3210 F       1  MOL1       -0.1920
    101    F       42.6880   21.5050   29.1520 F       1  MOL1       -0.1920
    102    F       29.9800   32.2240   28.3240 F       1  MOL1       -0.1920
    103    F       13.6910   32.1460   26.1080 F       1  MOL1       -0.1920
    104    F       23.5020   21.2400   30.2510 F       1  MOL1       -0.1920
    105    F       15.9800   31.0730   30.3800 F       1  MOL1       -0.1920
    106    F       23.3390   22.2970   32.0460 F       1  MOL1       -0.1920
    107    F       42.5170   28.8090   23.7280 F       1  MOL1       -0.1920
    108    F       14.6420   34.0380   26.4560 F       1  MOL1       -0.1920
    109    F       36.9960   15.5380   23.4580 F       1  MOL1       -0.1920
    110    F       41.8510   22.3790   27.2380 F       1  MOL1       -0.1920
    111    F       29.0160   30.2670   28.5010 F       1  MOL1       -0.1920
    112    F       16.0700   31.9850   32.1530 F       1  MOL1       -0.1920
    113    F       32.5190   19.9820   33.9100 F       1  MOL1       -0.1920
    114    F       14.7770   32.2450   23.3980 F       1  MOL1       -0.1920
    115    F       31.9150   18.8770   30.6950 F       1  MOL1       -0.1920
    116    F       23.0520   23.7580   28.7800 F       1  MOL1       -0.1920
    117    F       15.7000   29.6350   33.4430 F       1  MOL1       -0.1920
    118    F       40.0330   20.1620   29.3140 F       1  MOL1       -0.1920
    119    F       44.2660   27.9380   26.7280 F       1  MOL1       -0.1920
    120    F       36.8750   15.2720   19.8920 F       1  MOL1       -0.1920
    121    F       29.8810   32.2990   31.2850 F       1  MOL1       -0.1920
    122    F       23.0450   24.7530   30.7410 F       1  MOL1       -0.1920
    123    F       13.9640   30.2530   32.2370 F       1  MOL1       -0.1920
    124    F       16.1580   33.8320   23.9310 F       1  MOL1       -0.1920
    125    F       30.4770   19.2350   32.2780 F       1  MOL1       -0.1920
    126    F       37.7080   17.0070   20.8320 F       1  MOL1       -0.1920
    127    F       45.0650   27.8930   24.8920 F       1  MOL1       -0.1920
    128    F       29.2920   30.1450   31.1740 F       1  MOL1       -0.1920
    129    F       39.5300   21.0280   27.4660 F       1  MOL1       -0.1920
    130    F       25.5450   24.8280   29.4700 F       1  MOL1       -0.1920
    131    F       14.2950   27.4710   32.0310 F       1  MOL1       -0.1920
    132    F       17.2660   31.4080   23.9700 F       1  MOL1       -0.1920
    133    F       39.4020   14.7850   19.8450 F       1  MOL1       -0.1920
    134    F       31.9180   30.3950   31.5740 F       1  MOL1       -0.1920
    135    F       32.6320   21.5450   30.5310 F       1  MOL1       -0.1920
    136    F       45.4910   30.2010   26.6950 F       1  MOL1       -0.1920
    137    F       42.5310   19.0590   28.0140 F       1  MOL1       -0.1920
    138    F       15.6940   30.6830   25.3020 F       1  MOL1       -0.1920
    139    F       25.6920   22.6840   29.4790 F       1  MOL1       -0.1920
    140    F       16.3790   27.6630   31.7570 F       1  MOL1       -0.1920
    141    F       32.1500   31.8870   29.9230 F       1  MOL1       -0.1920
    142    F       43.3730   30.6070   26.6240 F       1  MOL1       -0.1920
    143    F       31.3970   22.0280   32.2880 F       1  MOL1       -0.1920
    144    F       38.5390   13.5500   21.3080 F       1  MOL1       -0.1920
    145    F       41.6860   19.8920   26.2060 F       1  MOL1       -0.1920
    146    F       18.1320   31.0050   26.5700 F       1  MOL1       -0.1920
    147    F       27.3080   23.8750   31.1920 F       1  MOL1       -0.1920
    148    F       14.7770   26.7630   29.6400 F       1  MOL1       -0.1920
    149    F       31.3250   29.7310   27.9970 F       1  MOL1       -0.1920
    150    F       41.0980   14.3740   21.9680 F       1  MOL1       -0.1920
    151    F       44.9250   32.4020   25.1610 F       1  MOL1       -0.1920
    152    F       30.1290   22.8410   30.0490 F       1  MOL1       -0.1920
    153    F       41.1710   17.2770   26.4520 F       1  MOL1       -0.1920
    154    F       25.8600   22.6190   32.0760 F       1  MOL1       -0.1920
    155    F       15.9660   28.4010   29.2560 F       1  MOL1       -0.1920
    156    F       16.4390   32.2630   27.3770 F       1  MOL1       -0.1920
    157    F       30.9280   28.4680   29.6460 F       1  MOL1       -0.1920
    158    F       39.5640   14.4600   23.3690 F       1  MOL1       -0.1920
    159    F       29.1460   21.2700   30.9560 F       1  MOL1       -0.1920
    160    F       43.4820   31.2840   24.0140 F       1  MOL1       -0.1920
    161    F       39.2630   18.1740   26.5260 F       1  MOL1       -0.1920
    162    F       33.5880   28.5990   30.4140 F       1  MOL1       -0.1920
    163    F       19.0900   32.9860   25.0940 F       1  MOL1       -0.1920
    164    F       13.7150   30.1360   29.3060 F       1  MOL1       -0.1920
    165    F       38.9690   17.8170   29.1450 F       1  MOL1       -0.1920
    166    F       45.2720   29.6910   22.6870 F       1  MOL1       -0.1920
    167    F       39.4680   17.3080   23.1050 F       1  MOL1       -0.1920
    168    F       29.8390   19.4860   28.8460 F       1  MOL1       -0.1920
    169    F       24.6430   24.7080   33.3250 F       1  MOL1       -0.1920
    170    F       45.6530   31.8040   22.4920 F       1  MOL1       -0.1920
    171    F       41.4300   16.5610   23.4990 F       1  MOL1       -0.1920
    172    F       28.9470   21.4050   28.1840 F       1  MOL1       -0.1920
    173    F       39.6420   15.9750   28.1970 F       1  MOL1       -0.1920
    174    F       33.2570   27.8810   28.4200 F       1  MOL1       -0.1920
    175    F       17.6410   34.4550   25.8260 F       1  MOL1       -0.1920
    176    F       26.8700   24.8580   33.5990 F       1  MOL1       -0.1920
    177    F       13.6480   28.5010   27.8400 F       1  MOL1       -0.1920
    178    F       47.4210   31.3620   24.8480 F       1  MOL1       -0.1922
    179    F       42.1670   16.5940   20.8540 F       1  MOL1       -0.1923
    180    F       31.6060   22.4450   27.9020 F       1  MOL1       -0.1923
    181    F       42.3020   16.5230   29.0080 F       1  MOL1       -0.1923
    182    F       33.8660   30.9880   27.7070 F       1  MOL1       -0.1923
    183    F       18.5120   33.3740   28.6440 F       1  MOL1       -0.1923
    184    F       26.9260   26.5600   31.4900 F       1  MOL1       -0.1923
    185    F       12.1670   26.8970   29.6570 F       1  MOL1       -0.1923
    186    F       47.3960   29.3620   24.3320 F       1  MOL1       -0.1922
    187    F       40.2320   17.3970   20.2500 F       1  MOL1       -0.1923
    188    F       41.5370   18.0770   30.3680 F       1  MOL1       -0.1923
    189    F       32.2790   20.3610   28.0360 F       1  MOL1       -0.1923
    190    F       34.7660   30.8810   29.7110 F       1  MOL1       -0.1923
    191    F       20.2070   32.6110   27.6310 F       1  MOL1       -0.1923
    192    F       11.9400   28.6170   30.8990 F       1  MOL1       -0.1923
    193    F       24.8740   26.6860   31.2030 F       1  MOL1       -0.1923
    194    F       49.4950   30.4020   23.3510 F       1  MOL1       -0.1940
    195    F       42.1100   19.4220   20.3650 F       1  MOL1       -0.1971
    196    F       31.9380   21.3710   25.5150 F       1  MOL1       -0.1971
    197    F       41.9220   15.8540   31.7110 F       1  MOL1       -0.1971
    198    F       36.4730   30.4570   27.4950 F       1  MOL1       -0.1971
    199    F       20.4750   35.1180   28.7370 F       1  MOL1       -0.1971
    200    F       25.8880   28.9990   32.6170 F       1  MOL1       -0.1971
    201    F        9.7810   28.1880   29.4000 F       1  MOL1       -0.1971
    202    F       49.3310   29.7720   20.6390 F       1  MOL1       -0.1650
    203    F       40.8780   19.3600   23.6990 F       1  MOL1       -0.1923
    204    F       39.6640   14.9710   32.7610 F       1  MOL1       -0.1923
    205    F       21.5180   36.4150   26.6220 F       1  MOL1       -0.1923
    206    F       24.6260   28.9810   35.0280 F       1  MOL1       -0.1923
    207    F       47.0760   30.2110   20.6810 F       1  MOL1       -0.1650
    208    F       39.6740   19.9260   21.7770 F       1  MOL1       -0.1923
    209    F       29.1160   19.2550   26.2080 F       1  MOL1       -0.1923
    210    F       38.3200   15.6700   31.0600 F       1  MOL1       -0.1923
    211    F       35.9840   27.7370   29.5770 F       1  MOL1       -0.1923
    212    F       20.3080   35.3010   25.1660 F       1  MOL1       -0.1923
    213    F       11.6110   30.7480   27.9580 F       1  MOL1       -0.1923
    214    F       24.4060   26.8100   34.9170 F       1  MOL1       -0.1923
    215    F       48.0290   28.4960   21.8680 F       1  MOL1       -0.1650
    216    F       31.2680   18.6120   26.2220 F       1  MOL1       -0.1923
    217    F       36.9920   29.6520   30.0680 F       1  MOL1       -0.1923
    218    F       10.4740   30.6530   29.8190 F       1  MOL1       -0.1923
    219    F       50.0940   32.4020   20.8860 F       1  MOL1       -0.1685
    220    F       44.6580   19.8570   21.1490 F       1  MOL1       -0.1685
    221    F       42.1390   13.3000   31.5880 F       1  MOL1       -0.1685
    222    F       30.1440   22.9950   23.8740 F       1  MOL1       -0.1685
    223    F       35.5150   29.9580   25.1200 F       1  MOL1       -0.1685
    224    F       18.4230   36.2560   29.7070 F       1  MOL1       -0.1685
    225    F        8.7760   27.1330   27.1340 F       1  MOL1       -0.1685
    226    F       27.9260   29.7440   34.1750 F       1  MOL1       -0.1685
    227    F       50.3390   33.0580   22.9390 F       1  MOL1       -0.1685
    228    F       44.4570   17.7690   20.6890 F       1  MOL1       -0.1685
    229    F       30.7480   23.9860   25.7260 F       1  MOL1       -0.1685
    230    F       42.8280   13.9870   29.5240 F       1  MOL1       -0.1685
    231    F       10.5080   25.8800   28.1230 F       1  MOL1       -0.1685
    232    F       33.6850   28.9560   25.9490 F       1  MOL1       -0.1685
    233    F       16.9960   35.4930   28.2780 F       1  MOL1       -0.1685
    234    F       28.7360   27.9360   33.1100 F       1  MOL1       -0.1685
    235    F       48.0130   34.2550   20.5960 F       1  MOL1       -0.1912
    236    F       45.6480   19.1060   23.8960 F       1  MOL1       -0.1912
    237    F       28.0940   24.1640   26.4410 F       1  MOL1       -0.1912
    238    F       40.2910   11.6260   30.5780 F       1  MOL1       -0.1912
    239    F       10.2110   27.4250   24.8440 F       1  MOL1       -0.1912
    240    F       36.5680   27.4640   24.3290 F       1  MOL1       -0.1912
    241    F       18.4890   38.8080   28.3750 F       1  MOL1       -0.1912
    242    F       28.1190   28.2950   36.6880 F       1  MOL1       -0.1912
    243    F       50.6550   34.8020   19.8430 F       1  MOL1       -0.1649
    244    F       47.2950   20.0260   21.8640 F       1  MOL1       -0.1649
    245    F       27.0960   21.9460   25.4700 F       1  MOL1       -0.1649
    246    F       43.1020   10.6760   30.7660 F       1  MOL1       -0.1649
    247    F       34.6450   28.7120   22.5740 F       1  MOL1       -0.1649
    248    F       16.8010   38.3790   30.5150 F       1  MOL1       -0.1649
    249    F       30.2360   30.0610   35.8430 F       1  MOL1       -0.1649
    250    F        9.6660   23.9100   25.7550 F       1  MOL1       -0.1649
    251    F       51.2270   35.2840   21.9090 F       1  MOL1       -0.1649
    252    F       47.2460   18.2380   20.7810 F       1  MOL1       -0.1649
    253    F       27.5470   22.6800   23.3410 F       1  MOL1       -0.1649
    254    F       43.2990   11.3320   28.7010 F       1  MOL1       -0.1649
    255    F       32.9210   27.5320   23.3770 F       1  MOL1       -0.1649
    256    F       15.2680   37.5820   29.1920 F       1  MOL1       -0.1649
    257    F        9.6980   24.7220   23.8780 F       1  MOL1       -0.1649
    258    F       31.0720   28.1990   34.6390 F       1  MOL1       -0.1649
    259    F       49.6160   36.5650   20.7270 F       1  MOL1       -0.1649
    260    F       47.9970   18.1720   22.8970 F       1  MOL1       -0.1649
    261    F       26.0240   23.6520   24.5280 F       1  MOL1       -0.1649
    262    F       41.6970    9.8400   29.2540 F       1  MOL1       -0.1649
    263    F        8.0570   25.4170   25.2500 F       1  MOL1       -0.1649
    264    F       34.5670   26.5850   22.4090 F       1  MOL1       -0.1649
    265    F       15.9800   39.6320   28.7640 F       1  MOL1       -0.1649
    266    F       30.8870   28.1730   36.7830 F       1  MOL1       -0.1649
    267    F       46.1660   34.9680   22.3620 F       1  MOL1       -0.1669
    268    F       46.1980   16.4110   25.0140 F       1  MOL1       -0.1669
    269    F       38.8400   11.1940   28.3460 F       1  MOL1       -0.1669
    270    F       27.4220   26.7800   25.7260 F       1  MOL1       -0.1669
    271    F       28.6090   25.9790   37.6930 F       1  MOL1       -0.1669
    272    F       36.0200   24.7220   24.2070 F       1  MOL1       -0.1669
    273    F       17.7320   39.6170   25.6960 F       1  MOL1       -0.1669
    274    F       12.3770   26.2850   23.3300 F       1  MOL1       -0.1669
    275    F       47.2310   34.3500   24.2600 F       1  MOL1       -0.1669
    276    F       44.1410   16.7280   24.3090 F       1  MOL1       -0.1669
    277    F       29.5480   26.7110   25.7630 F       1  MOL1       -0.1669
    278    F       38.7160   13.4050   28.8690 F       1  MOL1       -0.1669
    279    F       27.0810   25.6360   36.1700 F       1  MOL1       -0.1669
    280    F       36.9490   25.2920   26.1890 F       1  MOL1       -0.1669
    281    F       18.5040   37.5980   25.2660 F       1  MOL1       -0.1669
    282    F       12.8130   27.7650   24.9190 F       1  MOL1       -0.1669
    283    F       47.8100   36.7720   25.0430 F       1  MOL1       -0.1715
    284    F       44.2450   14.2300   22.9310 F       1  MOL1       -0.1715
    285    F       29.5580   27.1760   22.8190 F       1  MOL1       -0.1715
    286    F       39.8860   13.9530   26.2740 F       1  MOL1       -0.1715
    287    F       34.8050   24.2750   27.5790 F       1  MOL1       -0.1715
    288    F       15.9780   36.6100   24.7600 F       1  MOL1       -0.1715
    289    F       29.1980   23.7620   34.8560 F       1  MOL1       -0.1715
    290    F       14.3990   25.2140   26.0840 F       1  MOL1       -0.1715
    291    F       47.4430   37.6880   23.0160 F       1  MOL1       -0.1715
    292    F       46.4810   14.1800   23.6320 F       1  MOL1       -0.1715
    293    F       27.3940   27.1950   22.8800 F       1  MOL1       -0.1715
    294    F       39.7250   11.7080   25.9030 F       1  MOL1       -0.1715
    295    F       33.6740   23.8340   25.7710 F       1  MOL1       -0.1715
    296    F       14.9290   38.6490   25.0620 F       1  MOL1       -0.1715
    297    F       14.1290   24.5260   24.0000 F       1  MOL1       -0.1715
    298    F       30.4000   24.1660   36.6680 F       1  MOL1       -0.1715
    299    C       38.2090   28.1330   28.5530 C.3     1  MOL1        0.3837
    300    C       15.6360   22.9080   32.7530 C.3     1  MOL1        0.4603
    301    C       23.0370   28.0870   33.5870 C.3     1  MOL1        0.3837
    302    C       41.5880   21.2520   22.5980 C.3     1  MOL1        0.3837
    303    C       30.2800   19.3140   24.1670 C.3     1  MOL1        0.3837
    304    C       22.2420   34.2960   26.0220 C.3     1  MOL1        0.3837
    305    C       39.3540   17.2470   32.5100 C.3     1  MOL1        0.3837
    306    C        9.3070   30.5360   27.7610 C.3     1  MOL1        0.3837
    307    C        9.1550   32.1520   27.5360 C.3     1  MOL1        0.3840
    308    C       16.4930   21.7520   32.0750 C.3     1  MOL1        0.4087
    309    C       23.2510   33.9700   27.1970 C.3     1  MOL1        0.3840
    310    C       38.9060   27.1800   29.5520 C.3     1  MOL1        0.3840
    311    C       31.4360   19.5320   23.1890 C.3     1  MOL1        0.3840
    312    C       22.6650   29.3330   32.6120 C.3     1  MOL1        0.3840
    313    C       40.6720   22.2920   23.3020 C.3     1  MOL1        0.3840
    314    C       38.1560   17.4490   33.5340 C.3     1  MOL1        0.3840
    315    C       24.3980   32.8920   26.9130 C.3     1  MOL1        0.3840
    316    C       41.2200   23.7600   23.3960 C.3     1  MOL1        0.3840
    317    C       21.1030   29.5750   32.3520 C.3     1  MOL1        0.3840
    318    C       32.7300   18.6480   23.3640 C.3     1  MOL1        0.3840
    319    C        9.8620   32.7910   26.3060 C.3     1  MOL1        0.3840
    320    C       18.0360   22.0670   32.0380 C.3     1  MOL1        0.3868
    321    C       36.6090   17.2920   33.2770 C.3     1  MOL1        0.3840
    322    C       40.2590   26.4790   29.2020 C.3     1  MOL1        0.3840
    323    C       40.8680   25.5120   30.3040 C.3     1  MOL1        0.3840
    324    C       10.9330   33.8740   26.6010 C.3     1  MOL1        0.3840
    325    C       40.4710   24.8200   24.3000 C.3     1  MOL1        0.3840
    326    C       25.4120   32.7480   28.1270 C.3     1  MOL1        0.3840
    327    C       35.6360   17.9270   34.3670 C.3     1  MOL1        0.3840
    328    C       19.0270   20.9350   31.4430 C.3     1  MOL1        0.3841
    329    C       32.6450   17.0750   23.2210 C.3     1  MOL1        0.3840
    330    C       20.2470   30.4760   33.2750 C.3     1  MOL1        0.3840
    331    C       18.6940   30.2740   33.2030 C.3     1  MOL1        0.3840
    332    C       11.8100   34.6840   25.5790 C.3     1  MOL1        0.3840
    333    C       20.6290   21.1040   31.4620 C.3     1  MOL1        0.3840
    334    C       26.8040   32.0570   27.8940 C.3     1  MOL1        0.3840
    335    C       34.1070   17.4460   34.2030 C.3     1  MOL1        0.3840
    336    C       40.9470   26.3340   24.2830 C.3     1  MOL1        0.3840
    337    C       41.6520   24.2570   29.7080 C.3     1  MOL1        0.3840
    338    C       34.0230   16.3980   23.3830 C.3     1  MOL1        0.3840
    339    C       21.3180   22.2800   30.6490 C.3     1  MOL1        0.3840
    340    C       12.9770   33.9410   24.7250 C.3     1  MOL1        0.3840
    341    C       27.7640   32.0750   29.2240 C.3     1  MOL1        0.3840
    342    C       42.3740   26.6980   24.8420 C.3     1  MOL1        0.3840
    343    C       35.1630   16.5100   22.2280 C.3     1  MOL1        0.3840
    344    C       33.2150   17.8680   32.9800 C.3     1  MOL1        0.3840
    345    C       40.8460   22.9420   29.3890 C.3     1  MOL1        0.3840
    346    C       17.9870   30.5170   31.7770 C.3     1  MOL1        0.3840
    347    C       42.5940   28.2340   25.0030 C.3     1  MOL1        0.3840
    348    C       36.4480   15.5540   22.1780 C.3     1  MOL1        0.3840
    349    C       32.8210   19.3660   32.7840 C.3     1  MOL1        0.3840
    350    C       41.5860   21.8620   28.4530 C.3     1  MOL1        0.3840
    351    C       22.8890   22.3740   30.7620 C.3     1  MOL1        0.3840
    352    C       29.1820   31.4620   29.1500 C.3     1  MOL1        0.3840
    353    C       14.1640   33.2790   25.4560 C.3     1  MOL1        0.3840
    354    C       16.3800   30.7700   31.6450 C.3     1  MOL1        0.3840
    355    C       44.0430   28.5940   25.5540 C.3     1  MOL1        0.3840
    356    C       15.2650   29.7770   32.1560 C.3     1  MOL1        0.3840
    357    C       31.6400   19.6930   31.7550 C.3     1  MOL1        0.3840
    358    C       40.6270   20.6290   28.1850 C.3     1  MOL1        0.3840
    359    C       15.3820   32.8650   24.5110 C.3     1  MOL1        0.3840
    360    C       29.9590   31.1640   30.5010 C.3     1  MOL1        0.3840
    361    C       37.4680   15.6520   21.0410 C.3     1  MOL1        0.3840
    362    C       23.5890   23.6090   30.0800 C.3     1  MOL1        0.3840
    363    C       31.4770   30.7990   30.3070 C.3     1  MOL1        0.3840
    364    C       25.1440   23.7150   30.1700 C.3     1  MOL1        0.3840
    365    C       15.1990   28.3640   31.4140 C.3     1  MOL1        0.3840
    366    C       16.4220   31.8290   25.0530 C.3     1  MOL1        0.3840
    367    C       31.4720   21.1340   31.1750 C.3     1  MOL1        0.3840
    368    C       38.8630   14.8760   21.1420 C.3     1  MOL1        0.3840
    369    C       44.3910   30.1110   25.8270 C.3     1  MOL1        0.3840
    370    C       41.2800   19.4050   27.4380 C.3     1  MOL1        0.3840
    371    C       25.9820   23.8580   31.4990 C.3     1  MOL1        0.3840
    372    C       14.8590   28.1130   29.9430 C.3     1  MOL1        0.3840
    373    C       17.3070   32.1280   26.2920 C.3     1  MOL1        0.3840
    374    C       40.4220   18.0400   27.3000 C.3     1  MOL1        0.3840
    375    C       31.7940   29.5660   29.3030 C.3     1  MOL1        0.3840
    376    C       30.2470   21.4980   30.1980 C.3     1  MOL1        0.3840
    377    C       39.9650   15.1830   22.2300 C.3     1  MOL1        0.3840
    378    C       44.6790   31.1170   24.6400 C.3     1  MOL1        0.3840
    379    C       18.3230   33.3150   26.1820 C.3     1  MOL1        0.3837
    380    C       25.8290   24.9830   32.6180 C.3     1  MOL1        0.3837
    381    C       13.5810   28.7690   29.1970 C.3     1  MOL1        0.3837
    382    C       33.2330   29.0710   29.1900 C.3     1  MOL1        0.3837
    383    C       40.4890   16.6600   22.4940 C.3     1  MOL1        0.3837
    384    C       30.1010   20.8450   28.7290 C.3     1  MOL1        0.3837
    385    C       45.6770   30.7770   23.4360 C.3     1  MOL1        0.3838
    386    C       40.0900   17.2290   28.6030 C.3     1  MOL1        0.3837
    387    C       47.1970   30.5830   23.7460 C.3     1  MOL1        0.3825
    388    C       41.1610   17.4050   21.3510 C.3     1  MOL1        0.3798
    389    C       31.2070   21.1430   27.6980 C.3     1  MOL1        0.3798
    390    C       41.1320   16.8970   29.7200 C.3     1  MOL1        0.3798
    391    C       34.3760   30.0500   28.6350 C.3     1  MOL1        0.3798
    392    C       19.2150   33.5350   27.4640 C.3     1  MOL1        0.3798
    393    C       12.1440   28.2590   29.5880 C.3     1  MOL1        0.3798
    394    C       25.7900   26.5030   32.2560 C.3     1  MOL1        0.3798
    395    C       48.3110   30.7800   22.6640 C.3     1  MOL1        0.3796
    396    C       41.8440   18.8470   21.6040 C.3     1  MOL1        0.3539
    397    C       30.7920   21.0050   26.2170 C.3     1  MOL1        0.3539
    398    C       40.7760   15.8220   30.9020 C.3     1  MOL1        0.3539
    399    C       10.9040   28.6320   28.7240 C.3     1  MOL1        0.3539
    400    C       35.7520   29.4480   28.0750 C.3     1  MOL1        0.3539
    401    C       19.9550   34.9080   27.4880 C.3     1  MOL1        0.3539
    402    C       25.7340   27.7550   33.2740 C.3     1  MOL1        0.3539
    403    C       48.1680   29.8020   21.4710 C.3     1  MOL1        0.4558
    404    C       40.9330   19.9070   22.3760 C.3     1  MOL1        0.3798
    405    C       30.3820   19.5450   25.7210 C.3     1  MOL1        0.3798
    406    C       39.5030   15.9030   31.8240 C.3     1  MOL1        0.3798
    407    C       10.5390   30.1510   28.5550 C.3     1  MOL1        0.3798
    408    C       36.7710   28.7550   29.0150 C.3     1  MOL1        0.3798
    409    C       21.0190   35.1820   26.3470 C.3     1  MOL1        0.3798
    410    C       24.4760   27.9700   34.1530 C.3     1  MOL1        0.3798
    411    C       49.4470   32.9870   21.9310 C.3     1  MOL1        0.4278
    412    C       44.4620   18.6520   21.7560 C.3     1  MOL1        0.4277
    413    C       29.7610   23.2450   25.1560 C.3     1  MOL1        0.4277
    414    C       41.8060   13.4730   30.2840 C.3     1  MOL1        0.4277
    415    C       10.1920   26.7670   27.0900 C.3     1  MOL1        0.4277
    416    C       35.0070   28.7420   25.6370 C.3     1  MOL1        0.4277
    417    C       18.0030   36.4430   28.4360 C.3     1  MOL1        0.4277
    418    C       28.0750   28.3120   34.2670 C.3     1  MOL1        0.4277
    419    C       48.9890   34.3820   21.5840 C.3     1  MOL1        0.4007
    420    C       45.6740   18.3210   22.6890 C.3     1  MOL1        0.4007
    421    C       41.2670   12.1280   29.7550 C.3     1  MOL1        0.4007
    422    C       28.3730   23.9440   25.1510 C.3     1  MOL1        0.4007
    423    C       35.1650   27.5510   24.6380 C.3     1  MOL1        0.4007
    424    C       17.4770   37.8980   28.1900 C.3     1  MOL1        0.4007
    425    C       10.4310   26.2430   25.6270 C.3     1  MOL1        0.4007
    426    C       28.8400   27.9280   35.5570 C.3     1  MOL1        0.4007
    427    C       50.1410   35.2830   21.0040 C.3     1  MOL1        0.4584
    428    C       47.0330   18.7200   22.0370 C.3     1  MOL1        0.4584
    429    C       42.3790   11.0130   29.6230 C.3     1  MOL1        0.4584
    430    C       27.2400   23.0140   24.6310 C.3     1  MOL1        0.4584
    431    C       34.2930   27.5810   23.2810 C.3     1  MOL1        0.4584
    432    C       16.4040   38.3930   29.1570 C.3     1  MOL1        0.4584
    433    C        9.4330   25.0760   25.1740 C.3     1  MOL1        0.4584
    434    C       30.2640   28.6360   35.7260 C.3     1  MOL1        0.4584
    435    C       47.1830   35.3050   23.2590 C.3     1  MOL1        0.4458
    436    C       45.3090   16.1750   23.9840 C.3     1  MOL1        0.4458
    437    C       28.4530   26.5670   24.8930 C.3     1  MOL1        0.4458
    438    C       39.3240   12.4650   28.0950 C.3     1  MOL1        0.4458
    439    C       35.7590   25.0860   25.4820 C.3     1  MOL1        0.4458
    440    C       17.3510   38.3080   25.6610 C.3     1  MOL1        0.4458
    441    C       28.4560   25.5650   36.3660 C.3     1  MOL1        0.4458
    442    C       12.8150   26.4210   24.6020 C.3     1  MOL1        0.4458
    443    C       47.0460   36.7440   23.8920 C.3     1  MOL1        0.4576
    444    C       45.2220   14.6380   23.8860 C.3     1  MOL1        0.4576
    445    C       39.2280   12.7790   26.5930 C.3     1  MOL1        0.4576
    446    C       28.5080   27.4010   23.6390 C.3     1  MOL1        0.4576
    447    C       29.1380   24.1860   36.1540 C.3     1  MOL1        0.4576
    448    C       34.9580   23.9370   26.2110 C.3     1  MOL1        0.4576
    449    C       16.1230   38.0210   24.7470 C.3     1  MOL1        0.4576
    450    C       14.1470   25.6290   24.7840 C.3     1  MOL1        0.4576
    451    O       48.2480   32.1760   22.2200 O.3     1  MOL1       -0.2658
    452    O       43.1170   18.6540   22.3210 O.3     1  MOL1       -0.2679
    453    O       29.7480   21.9530   25.8450 O.3     1  MOL1       -0.2679
    454    O       40.7690   14.4660   30.2530 O.3     1  MOL1       -0.2679
    455    O       35.6760   28.5190   26.9430 O.3     1  MOL1       -0.2679
    456    O       19.0030   36.0640   27.4870 O.3     1  MOL1       -0.2679
    457    O       26.8460   27.6410   34.2360 O.3     1  MOL1       -0.2679
    458    O       10.9770   27.9460   27.3930 O.3     1  MOL1       -0.2679
    459    O       48.5130   35.1890   22.7080 O.3     1  MOL1       -0.2625
    460    O       45.7880   16.8850   22.8520 O.3     1  MOL1       -0.2625
    461    O       40.7860   12.4410   28.4410 O.3     1  MOL1       -0.2625
    462    O       28.4120   25.1670   24.3780 O.3     1  MOL1       -0.2625
    463    O       29.1130   26.5110   35.5500 O.3     1  MOL1       -0.2625
    464    O       35.0280   26.3290   25.3750 O.3     1  MOL1       -0.2625
    465    O       16.7970   37.9320   26.8950 O.3     1  MOL1       -0.2625
    466    O       11.7660   25.7290   25.4040 O.3     1  MOL1       -0.2625
    467    O       44.4090   37.6120   23.1880 O.3     1  MOL1       -0.0641
    468    O       44.6760   12.3580   25.3540 O.3     1  MOL1       -0.0641
    469    O       30.1000   29.3440   24.7220 O.3     1  MOL1       -0.0641
    470    O       36.7680   14.3850   26.6410 O.3     1  MOL1       -0.0641
    471    O       16.0400   27.7930   25.3770 O.3     1  MOL1       -0.0641
    472    O       37.2560   22.3040   26.6910 O.3     1  MOL1       -0.0641
    473    O       17.7060   37.4750   22.6770 O.3     1  MOL1       -0.0641
    474    O       26.8550   22.8020   36.1810 O.3     1  MOL1       -0.0641
    475    O       45.3580   38.2130   25.4510 O.3     1  MOL1       -0.0641
    476    O       43.0450   14.4540   25.6230 O.3     1  MOL1       -0.0641
    477    O       27.5280   29.6770   24.9790 O.3     1  MOL1       -0.0641
    478    O       36.6010   11.8050   26.7970 O.3     1  MOL1       -0.0641
    479    O       35.7470   21.7460   24.6040 O.3     1  MOL1       -0.0641
    480    O       17.3590   39.9520   22.8680 O.3     1  MOL1       -0.0641
    481    O       15.1970   27.3210   22.8980 O.3     1  MOL1       -0.0641
    482    O       27.9830   23.2230   38.4820 O.3     1  MOL1       -0.0641
    483    O       44.6840   35.8100   24.9820 O.3     1  MOL1       -0.0641
    484    O       45.2770   14.4780   26.7670 O.3     1  MOL1       -0.0641
    485    O       28.8540   30.0520   22.8010 O.3     1  MOL1       -0.0641
    486    O       37.2480   12.9250   24.5300 O.3     1  MOL1       -0.0641
    487    O       35.0550   21.2530   26.9830 O.3     1  MOL1       -0.0641
    488    O       15.4570   38.3560   22.0090 O.3     1  MOL1       -0.0641
    489    O       16.8030   25.7750   24.1220 O.3     1  MOL1       -0.0641
    490    O       28.9690   21.4340   36.9230 O.3     1  MOL1       -0.0641
    491    S       45.3240   37.0930   24.3570 S.3     1  MOL1        0.0858
    492    S       44.5940   13.9280   25.4500 S.3     1  MOL1        0.0858
    493    S       28.6400   29.1310   24.0250 S.3     1  MOL1        0.0858
    494    S       37.4300   12.9680   26.1720 S.3     1  MOL1        0.0858
    495    S       35.7890   22.3130   26.0670 S.3     1  MOL1        0.0858
    496    S       16.5830   38.5540   23.1200 S.3     1  MOL1        0.0858
    497    S       28.2280   22.8870   36.9860 S.3     1  MOL1        0.0858
    498    S       15.5020   26.6910   24.3380 S.3     1  MOL1        0.0858
@<TRIPOS>BOND
     1   243   427    1
     2   133   368    1
     3   120   361    1
     4   187   388    1
     5   195   396    1
     6   235   419    1
     7   202   403    1
     8   207   403    1
     9   228   412    1
    10   259   427    1
    11   252   428    1
    12   126   361    1
    13   179   388    1
    14   219   411    1
    15   427   419    1
    16   427   251    1
    17    91   343    1
    18   361   368    1
    19   361   348    1
    20   368   144    1
    21   368   377    1
    22   220   412    1
    23    15   302    1
    24   388   396    1
    25   388   383    1
    26   403   215    1
    27   403   395    1
    28   419   411    1
    29   419   459    1
    30   396   452    1
    31   396   404    1
    32   412   452    1
    33   412   420    1
    34   208   404    1
    35   244   428    1
    36    33   311    1
    37   411   451    1
    38   411   227    1
    39   150   377    1
    40   488   496    2
    41   428   420    1
    42   428   260    1
    43    55   329    1
    44    99   348    1
    45    43   316    1
    46   348   343    1
    47   348   109    1
    48   451   395    1
    49   343    83    1
    50   343   338    1
    51   377   383    1
    52   377   158    1
    53   267   435    1
    54   404   302    1
    55   404   203    1
    56   264   431    1
    57    35   318    1
    58   170   385    1
    59   383   167    1
    60   383   171    1
    61   247   431    1
    62    30   313    1
    63   302     7    1
    64   302   313    1
    65   395   194    1
    66   395   387    1
    67   473   496    2
    68   166   385    1
    69   420   460    1
    70   420   236    1
    71   459   435    1
    72   485   493    1
    73   285   446    1
    74   460   436    1
    75   480   496    1
    76   293   446    1
    77   481   498    1
    78   284   444    1
    79   291   443    1
    80    78   336    1
    81    19   311    1
    82   496   449    1
    83   467   491    1
    84   311   318    1
    85   311   303    1
    86   329   318    1
    87   329   338    1
    88   329    62    1
    89   435   443    1
    90   435   275    1
    91   431   255    1
    92   431   423    1
    93   313   316    1
    94   313    25    1
    95   274   442    1
    96   253   430    1
    97   318    45    1
    98   338    72    1
    99   338    79    1
   100   316    38    1
   101   316   325    1
   102   114   359    1
   103   385   387    1
   104   385   378    1
   105   292   444    1
   106   446   493    1
   107   446   437    1
   108    63   325    1
   109   107   347    1
   110   387   186    1
   111   387   178    1
   112     9   303    1
   113    95   340    1
   114   222   413    1
   115   257   433    1
   116   444   436    1
   117   444   492    1
   118   443   491    1
   119   443   283    1
   120    87   340    1
   121   124   359    1
   122   132   366    1
   123   436   276    1
   124   436   268    1
   125   297   450    1
   126   160   378    1
   127     2   303    1
   128   493   469    2
   129   493   477    2
   130    82   342    1
   131   489   498    2
   132   303   405    1
   133   272   439    1
   134   336   325    1
   135   336   342    1
   136   336    71    1
   137   325    54    1
   138   240   423    1
   139   498   450    1
   140   498   471    2
   141   491   483    2
   142   491   475    2
   143   462   437    1
   144   462   422    1
   145   359   366    1
   146   359   353    1
   147   261   430    1
   148   486   494    1
   149   442   450    1
   150   442   282    1
   151   442   466    1
   152   479   495    1
   153   430   422    1
   154   430   245    1
   155   423   464    1
   156   423   416    1
   157   378   151    1
   158   378   369    1
   159   340   353    1
   160   340   332    1
   161    74   332    1
   162   449   288    1
   163   449   296    1
   164   449   440    1
   165   450   290    1
   166   342   347    1
   167   342    90    1
   168   239   425    1
   169   127   355    1
   170   437   270    1
   171   437   277    1
   172    11   304    1
   173   347   355    1
   174   347    98    1
   175   366   138    1
   176   366   373    1
   177   163   379    1
   178   223   416    1
   179   422   413    1
   180   422   237    1
   181   413   229    1
   182   413   453    1
   183   212   409    1
   184   433   263    1
   185   433   425    1
   186   433   250    1
   187   281   440    1
   188   468   492    1
   189   464   439    1
   190   466   425    1
   191    47   319    1
   192   492   476    2
   193   492   484    2
   194   353   103    1
   195   353   108    1
   196   439   280    1
   197   439   448    1
   198     8   304    1
   199   196   397    1
   200   355   369    1
   201   355   119    1
   202   332    73    1
   203   332   324    1
   204    40   319    1
   205   425   415    1
   206   416   232    1
   207   416   455    1
   208   440   273    1
   209   440   465    1
   210   405   209    1
   211   405   397    1
   212   405   216    1
   213   295   448    1
   214    46   315    1
   215   175   379    1
   216   369   142    1
   217   369   136    1
   218   453   397    1
   219   294   445    1
   220   304   409    1
   221   304   309    1
   222   495   448    1
   223   495   472    2
   224   495   487    2
   225   494   445    1
   226   494   470    2
   227   494   478    2
   228   379   373    1
   229   379   392    1
   230   145   370    1
   231   448   287    1
   232   397   389    1
   233   286   445    1
   234   373   146    1
   235   373   156    1
   236   319   324    1
   237   319   307    1
   238   409   205    1
   239   409   401    1
   240   153   374    1
   241   161   374    1
   242    34   315    1
   243   445   438    1
   244   324    58    1
   245   324    50    1
   246     1   306    1
   247   465   424    1
   248   315   309    1
   249   315   326    1
   250   455   400    1
   251    68   334    1
   252   415   225    1
   253   415   458    1
   254   415   231    1
   255   309    29    1
   256   309    18    1
   257   110   350    1
   258     4   299    1
   259   374   370    1
   260   374   386    1
   261   458   399    1
   262    28   307    1
   263   370   137    1
   264   370   358    1
   265   392   401    1
   266   392   191    1
   267   392   183    1
   268   129   358    1
   269   456   401    1
   270   456   417    1
   271   401   199    1
   272   198   400    1
   273    77   334    1
   274   307   306    1
   275   307    22    1
   276   389   180    1
   277   389   189    1
   278   389   384    1
   279   182   391    1
   280   306    13    1
   281   306   407    1
   282   177   381    1
   283   334   326    1
   284   334   341    1
   285   213   407    1
   286   149   375    1
   287    37   322    1
   288   400   391    1
   289   400   408    1
   290   438   269    1
   291   438   461    1
   292   438   278    1
   293   326    64    1
   294   326    53    1
   295   172   384    1
   296   358   350    1
   297   358   118    1
   298   424   241    1
   299   424   417    1
   300   424   432    1
   301   173   386    1
   302   233   417    1
   303   102   352    1
   304   174   382    1
   305   417   224    1
   306   461   421    1
   307    10   299    1
   308   350   101    1
   309   350   345    1
   310   111   352    1
   311   299   408    1
   312   299   310    1
   313   407   399    1
   314   407   218    1
   315   386   165    1
   316   386   390    1
   317   391   382    1
   318   391   190    1
   319   254   429    1
   320    42   322    1
   321   399   201    1
   322   399   393    1
   323   384   168    1
   324   384   376    1
   325    75   337    1
   326    85   345    1
   327   265   432    1
   328   116   362    1
   329   181   390    1
   330   408   211    1
   331   408   217    1
   332   352   341    1
   333   352   360    1
   334   432   256    1
   335   432   248    1
   336   382   375    1
   337   382   162    1
   338   381   164    1
   339   381   393    1
   340   381   372    1
   341   322   310    1
   342   322   323    1
   343   341    94    1
   344   341    86    1
   345   262   429    1
   346   155   372    1
   347   375   157    1
   348   375   363    1
   349    97   339    1
   350   345   337    1
   351   345    92    1
   352   130   364    1
   353   139   364    1
   354   230   414    1
   355   310    24    1
   356   310    27    1
   357   393   185    1
   358   393   192    1
   359   429   421    1
   360   429   246    1
   361   148   372    1
   362   337   323    1
   363   337    70    1
   364   390   188    1
   365   390   398    1
   366   421   414    1
   367   421   238    1
   368   141   363    1
   369   372   365    1
   370   152   376    1
   371   362   364    1
   372   362   122    1
   373   362   351    1
   374   364   371    1
   375   376   159    1
   376   376   367    1
   377    52   328    1
   378   104   351    1
   379   454   414    1
   380   454   398    1
   381   414   221    1
   382   323    61    1
   383   323    57    1
   384   363   360    1
   385   363   134    1
   386   105   354    1
   387   360   128    1
   388   360   121    1
   389   135   367    1
   390   339   351    1
   391   339    88    1
   392   339   333    1
   393   115   357    1
   394   351   106    1
   395    21   308    1
   396    89   346    1
   397   398   197    1
   398   398   406    1
   399    67   333    1
   400   210   406    1
   401    39   317    1
   402    96   346    1
   403   367   357    1
   404   367   143    1
   405   147   371    1
   406   193   394    1
   407    36   320    1
   408    20   312    1
   409   365   140    1
   410   365   131    1
   411   365   356    1
   412   328   333    1
   413   328   320    1
   414   328    60    1
   415   333    80    1
   416   184   394    1
   417   371   154    1
   418   371   380    1
   419   354   346    1
   420   354   112    1
   421   354   356    1
   422    14   305    1
   423   357   125    1
   424   357   349    1
   425   346   331    1
   426   406   305    1
   427   406   204    1
   428    93   344    1
   429     3   300    1
   430   320   308    1
   431   320    49    1
   432   308    32    1
   433   308   300    1
   434    41   321    1
   435   356   123    1
   436   356   117    1
   437   394   380    1
   438   394   402    1
   439    48   317    1
   440   100   349    1
   441   317   312    1
   442   317   330    1
   443   305     5    1
   444   305   314    1
   445   312    26    1
   446   312   301    1
   447   200   402    1
   448   380   169    1
   449   380   176    1
   450    17   300    1
   451   300    16    1
   452   349   344    1
   453   349   113    1
   454     6   301    1
   455    56   330    1
   456    44   321    1
   457   344    84    1
   458   344   335    1
   459   234   418    1
   460   331   330    1
   461   331    81    1
   462   331    66    1
   463   402   410    1
   464   402   457    1
   465   330    59    1
   466   321   314    1
   467   321   327    1
   468   314    23    1
   469   314    31    1
   470   301   410    1
   471   301    12    1
   472   410   214    1
   473   410   206    1
   474   226   418    1
   475   335   327    1
   476   335    76    1
   477   335    69    1
   478   457   418    1
   479   418   426    1
   480   327    51    1
   481   327    65    1
   482   258   434    1
   483   289   447    1
   484   463   426    1
   485   463   441    1
   486   426   434    1
   487   426   242    1
   488   434   249    1
   489   434   266    1
   490   447   441    1
   491   447   298    1
   492   447   497    1
   493   279   441    1
   494   474   497    1
   495   441   271    1
   496   490   497    2
   497   497   482    2
